Circuit: * C:\Users\123ab\OneDrive\Documents\Learning_Material\ElectrinicSystemDesign\WORKSHOP\Workshop1\Draft7.asc

Direct Newton iteration for .op point succeeded.

Date: Thu Aug 02 15:25:05 2018
Total elapsed time: 0.219 seconds.

tnom = 27
temp = 27
method = modified trap
totiter = 778
traniter = 730
tranpoints = 366
accept = 255
rejected = 111
matrix size = 26
fillins = 8
solver = Normal
Matrix Compiler1: 1.54 KB object code size  0.9/0.6/[0.2]
Matrix Compiler2: 2.51 KB object code size  0.6/0.7/[0.3]

