Circuit: * C:\Users\123ab\OneDrive\Documents\Learning_Material\ElectrinicSystemDesign\WORKSHOP\Workshop1\GOODSC_2.asc

Direct Newton iteration failed to find .op point.  (Use ".option noopiter" to skip.)
Starting Gmin stepping
Gmin = 10
Gmin = 1.07374
vernier = 0.5
vernier = 0.25
vernier = 0.125
vernier = 0.0625
vernier = 0.03125
Gmin = 1.0412
vernier = 0.015625
vernier = 0.0078125
Gmin = 1.0132
vernier = 0.00390625
vernier = 0.00195313
Gmin = 1.00827
vernier = 0.00260417
vernier = 0.00130208
Gmin = 1.00515
vernier = 0.000651042
vernier = 0.000868055
vernier = 0.000434028
Gmin = 1.00434
vernier = 0.000578703
vernier = 0.000434027
Gmin = 1.00339
Gmin = 0
Gmin stepping failed

Starting source stepping with srcstepmethod=0
Source Step = 3.0303%
Source Step = 33.3333%
Source Step = 63.6364%
Source Step = 93.9394%
Source stepping succeeded in finding the operating point.


Date: Sat Sep 01 09:45:02 2018
Total elapsed time: 1.385 seconds.

tnom = 27
temp = 27
method = modified trap
totiter = 9182
traniter = 4343
tranpoints = 1495
accept = 1262
rejected = 233
matrix size = 42
fillins = 47
solver = Normal
Thread vector: 58.9/27.5[4] 7.9/4.8[4] 4.7/3.3[4] 0.7/5.7[1]  2592/500
Matrix Compiler1: 4.14 KB object code size  2.1/1.3/[0.5]
Matrix Compiler2: 5.22 KB object code size  2.1/3.1/[0.9]

