Circuit: * C:\Users\123ab\OneDrive\Documents\Learning_Material\ElectrinicSystemDesign\WORKSHOP\Workshop1\SecondOrder2.asc

Direct Newton iteration for .op point succeeded.

Date: Thu Aug 09 13:05:13 2018
Total elapsed time: 0.281 seconds.

tnom = 27
temp = 27
method = trap
totiter = 27
traniter = 0
tranpoints = 0
accept = 0
rejected = 0
matrix size = 14
fillins = 4
solver = Normal
Matrix Compiler1:      47 opcodes
Matrix Compiler2: 1.28 KB object code size
